/*--------------------------------*- C++ -*----------------------------------*\
  =========                 |
  \\      /  F ield         | OpenFOAM: The Open Source CFD Toolbox
   \\    /   O peration     | Website:  https://openfoam.org
    \\  /    A nd           | Version:  7
     \\/     M anipulation  |
\*---------------------------------------------------------------------------*/
FoamFile
{
    version         2;
    format          ascii;
    class           dictionary;
    location        system;
    object          conditionalAverage;
}

enabled         true;

type            conditionalAverage;

libs            ( "libconditionalAverage.so" );

writeFormat     raw;

conditionalFields ( Z );

nBins           500;

averagedFields  ( varZ );


// ************************************************************************* //
