/*--------------------------------*- C++ -*----------------------------------*\
  =========                 |
  \\      /  F ield         | OpenFOAM: The Open Source CFD Toolbox
   \\    /   O peration     | Website:  https://openfoam.org
    \\  /    A nd           | Version:  dev
     \\/     M anipulation  |
\*---------------------------------------------------------------------------*/

FoamFile
{
    version         2.0;
    format          ascii;
    class           dictionary;
    location        system;
    object          histgram;
}

// * * * * * * * * * * * * * * * * * * * * * * * * * * * * * * * * * * * * //

enabled         true;

type            histogram;

libs            ("libfieldFunctionObjects.so");

field           Z;
nBins           100;
min             0;
max             1;
setFormat       csv;