/*--------------------------------*- C++ -*----------------------------------*\
  =========                 |
  \\      /  F ield         | OpenFOAM: The Open Source CFD Toolbox
   \\    /   O peration     | Website:  https://openfoam.org
    \\  /    A nd           | Version:  dev
     \\/     M anipulation  |
\*---------------------------------------------------------------------------*/

FoamFile
{
    version         2.0;
    format          ascii;
    class           dictionary;
    location        system;
    object          sampleLineForMixtureFraction;
}

// * * * * * * * * * * * * * * * * * * * * * * * * * * * * * * * * * * * * //

type sets;

libs ("libsampling.so");

setFormat raw;

interpolationScheme cellPoint;


fields ( Z );

sets
(
    L1785
    {
        type        lineUniform;
        axis        x;
        start       (-0.054 0.054 0.03615);
        end         ( 0.054 0.054 0.03615);
        nPoints     500;
    }
    L20
    {
        type        lineUniform;
        axis        x;
        start       (-0.054 0.054 0.034);
        end         ( 0.054 0.054 0.034);
        nPoints     500;
    }
    L25
    {
        type        lineUniform;
        axis        x;
        start       (-0.054 0.054 0.029);
        end         ( 0.054 0.054 0.029);
        nPoints     500;
    }
    L40
    {
        type        lineUniform;
        axis        x;
        start       (-0.054 0.054 0.014);
        end         ( 0.054 0.054 0.014);
        nPoints     500;
    }
    L50
    {
        type        lineUniform;
        axis        x;
        start       (-0.054 0.054 0.004);
        end         ( 0.054 0.054 0.004);
        nPoints     500;
    }
    Axial
    {
        type        lineUniform;
        axis        distance;
        start       (0 0.054 0.054);
        end         (0 0.054 -0.054);
        nPoints     500;
    }
);


// *********************************************************************** //
