/*--------------------------------*- C++ -*----------------------------------*\
  =========                 |
  \\      /  F ield         | OpenFOAM: The Open Source CFD Toolbox
   \\    /   O peration     | Website:  https://openfoam.org
    \\  /    A nd           | Version:  dev
     \\/     M anipulation  |
\*---------------------------------------------------------------------------*/

FoamFile
{
    version         2.0;
    format          ascii;
    class           dictionary;
    location        system;
    object          spanwiseAverageForMixtureFraction;
}

// * * * * * * * * * * * * * * * * * * * * * * * * * * * * * * * * * * * * //

type surfaces;

libs ("libZYsampling.so");

surfaceFormat raw;//raw;//vtk;

interpolationScheme cell;

fields (Z);

surfaces
(
    planeZY
    {
        type spanwisePlane; //choose class 'spanwiseAverage' to get spanwise averaging.
        interpolate    true; //Must be true, or it just cut the plane but not do spanwise average.
        planeType pointAndNormal; //method used to specific the cuttingPlane
        pointAndNormalDict
        {
            basePoint ( 0 0.054 0.054); //This is the origin point for cut plane and for spanwise average
            normalVector (1 0 0); //This is the normal vector for cut plane, it must be one of the axis.
        }
        nPoints    72; //The sample points, how many data in 360 degree is used to average.
        spanwiseVector (0 0 -1); //The symmetry axis, it is the rotation vector for spanwise average
                                //it must be perpendicular to normalVector
    }
);


// *********************************************************************** //
